/*--------------------------------*- C++ -*----------------------------------*\
| =========                 |                                                 |
| \\      /  F ield         | OpenFOAM: The Open Source CFD Toolbox           |
|  \\    /   O peration     | Version:  2412                                  |
|   \\  /    A nd           | Website:  www.openfoam.com                      |
|    \\/     M anipulation  |                                                 |
\*---------------------------------------------------------------------------*/
FoamFile
{
    version     2.0;
    format      ascii;
    arch        "LSB;label=32;scalar=64";
    class       polyBoundaryMesh;
    location    "constant/polyMesh";
    object      boundary;
}
// * * * * * * * * * * * * * * * * * * * * * * * * * * * * * * * * * * * * * //

9
(
    inlet
    {
        type            patch;
        nFaces          140;
        startFace       111480;
    }
    outlet
    {
        type            patch;
        nFaces          280;
        startFace       111620;
    }
    lowerWallStartup
    {
        type            wall;
        inGroups        1(wall);
        nFaces          80;
        startFace       111900;
    }
    upperWallStartup
    {
        type            wall;
        inGroups        1(wall);
        nFaces          80;
        startFace       111980;
    }
    upperWall
    {
        type            wall;
        inGroups        1(wall);
        nFaces          160;
        startFace       112060;
    }
    verticalWall
    {
        type            wall;
        inGroups        1(wall);
        nFaces          140;
        startFace       112220;
    }
    lowerWall
    {
        type            wall;
        inGroups        1(wall);
        nFaces          160;
        startFace       112360;
    }
    front
    {
        type            empty;
        inGroups        1(empty);
        nFaces          56000;
        startFace       112520;
    }
    back
    {
        type            empty;
        inGroups        1(empty);
        nFaces          56000;
        startFace       168520;
    }
)

// ************************************************************************* //
