/*--------------------------------*- C++ -*----------------------------------*\
| =========                 |                                                 |
| \\      /  F ield         | OpenFOAM: The Open Source CFD Toolbox           |
|  \\    /   O peration     | Version:  v2412                                 |
|   \\  /    A nd           | Website:  www.openfoam.com                      |
|    \\/     M anipulation  |                                                 |
\*---------------------------------------------------------------------------*/
FoamFile
{
    version     2.0;
    format      ascii;
    class       volScalarField;
    object      nut;
}
// * * * * * * * * * * * * * * * * * * * * * * * * * * * * * * * * * * * * * //

dimensions      [0 2 -1 0 0 0 0];

internalField   uniform 1.404e-7; // nu*0.009

boundaryField
{
    inlet
    {
        type            calculated;
        value           uniform 1.404e-7;
    }

    outlet
    {
        type            calculated;
        value           uniform 0;
    }

   "(upperWall|lowerWall|verticalWall|lowerWallStartup|upperWallStartup)"
    {
        type            nutUBlendedWallFunction;
        value           uniform 0;
    }

    "(front|back)"
    {
        type            empty;
    }
}


// ************************************************************************* //
